Version 4
SHEET 1 1068 680
WIRE 496 80 480 80
WIRE 608 80 576 80
WIRE 144 112 128 112
WIRE 272 112 224 112
WIRE 272 192 272 112
WIRE 384 192 272 192
WIRE 480 192 480 80
WIRE 480 192 464 192
WIRE 496 192 480 192
WIRE 192 208 192 192
WIRE 608 208 608 80
WIRE 608 208 560 208
WIRE 656 208 608 208
WIRE 128 224 128 112
WIRE 128 224 -80 224
WIRE 160 224 128 224
WIRE 496 224 480 224
WIRE -384 240 -384 224
WIRE -288 240 -288 224
WIRE -80 240 -80 224
WIRE 272 240 272 192
WIRE 272 240 224 240
WIRE 160 256 128 256
WIRE 448 256 432 256
WIRE 480 256 480 224
WIRE 480 256 448 256
WIRE 192 288 192 272
WIRE 128 304 128 256
WIRE 128 304 112 304
WIRE -128 320 -192 320
WIRE 128 320 128 304
WIRE -384 336 -384 320
WIRE -288 336 -288 320
WIRE -192 336 -192 320
WIRE 448 352 448 336
WIRE -80 368 -80 336
WIRE 128 416 128 400
WIRE -192 432 -192 416
FLAG -288 336 0
FLAG 192 192 +V
FLAG -288 224 +V
FLAG 192 288 -V
FLAG -384 336 0
FLAG -384 224 -V
FLAG 528 176 +V
FLAG 528 240 -V
FLAG 352 256 +V
FLAG 448 352 0
FLAG 128 416 0
FLAG 32 304 +V
FLAG -80 368 0
FLAG -192 432 0
FLAG 656 208 V_OUT
IOPIN 656 208 Out
SYMBOL voltage -288 224 R0
SYMATTR InstName V1
SYMATTR Value 5
SYMBOL voltage -384 224 R0
SYMATTR InstName V2
SYMATTR Value -1
SYMBOL LT1007 192 176 R0
SYMATTR InstName U1
SYMBOL res 240 96 R90
WINDOW 0 0 56 VBottom 2
WINDOW 3 32 56 VTop 2
SYMATTR InstName R2
SYMATTR Value 10k
SYMBOL LT1007 528 144 R0
SYMATTR InstName U2
SYMBOL res 480 176 R90
WINDOW 0 0 56 VBottom 2
WINDOW 3 32 56 VTop 2
SYMATTR InstName R3
SYMATTR Value 1k
SYMBOL res 592 64 R90
WINDOW 0 0 56 VBottom 2
WINDOW 3 32 56 VTop 2
SYMATTR InstName R4
SYMATTR Value 3k
SYMBOL res 432 240 R0
SYMATTR InstName R5
SYMATTR Value 5k
SYMBOL res 448 240 R90
WINDOW 0 0 56 VBottom 2
WINDOW 3 32 56 VTop 2
SYMATTR InstName R6
SYMATTR Value 3k
SYMBOL res 112 304 R0
SYMATTR InstName R7
SYMATTR Value 3.5k
SYMBOL res 128 288 R90
WINDOW 0 0 56 VBottom 2
WINDOW 3 32 56 VTop 2
SYMATTR InstName R8
SYMATTR Value 3k
SYMBOL nmos -128 240 R0
SYMATTR InstName M1
SYMBOL voltage -192 320 R0
WINDOW 123 0 0 Left 0
WINDOW 39 0 0 Left 0
SYMATTR InstName V3
SYMATTR Value SINE(2 1 100)
TEXT -424 32 Left 2 !;.tran 100m
TEXT -448 72 Left 2 !.dc V3 1 3 0.1
